OPT_V10/Two_days_first_run/powerflow_results_t29.txt
Pandapower Network Debug Info
==================================================

BUS:
       vm_pu  va_degree      p_mw    q_mvar
0   0.992776   0.128824  0.001153  0.001137
1   0.988687   0.218802  0.001284  0.001926
2   0.984988   0.308244  0.001690  0.002998
3   0.988560   0.203297  0.002955  0.004215
4   0.989761   0.264467  0.002606  0.005166
5   0.991394   0.206424  0.003410  0.006848
6   0.989688   0.225310  0.001026  0.001171
7   0.997650   0.040653  0.001459  0.002137
8   0.997924   0.043197  0.001975  0.002590
9   0.999821   0.000689  0.009978  0.008907
10  0.999827   0.000667  0.013108  0.009352
11  0.999845   0.000660  0.012357  0.011827
12  0.999762   0.001805  0.010609  0.005108
13  0.999730   0.002019  0.014284  0.011525
14  0.999742   0.002008  0.012471  0.013829
15  0.999927   0.000466  0.000000  0.000000
16  0.999926   0.000472  0.000000  0.000000
17  0.999767   0.001867  0.000000  0.000000
18  0.999767   0.001878  0.000000  0.000000
19  1.000000   0.000000 -0.042675 -0.045463
20  1.000000   0.000006  0.000000  0.000000
21  1.000000   0.000000 -0.048002 -0.053486
22  1.000000   0.000007  0.000000  0.000000
--------------------------------------------------

LINE:
    p_from_mw  q_from_mvar   p_to_mw  q_to_mvar         pl_mw       ql_mvar  i_from_ka   i_to_ka      i_ka  vm_from_pu  va_from_degree  vm_to_pu  va_to_degree  loading_percent
0    0.042665     0.041463 -0.042661  -0.041461  3.462106e-06  2.699461e-06   0.002290  0.002290  0.002290    1.000000        0.000006  0.999927      0.000466         0.995615
1    0.047992     0.049486 -0.047980  -0.049476  1.278248e-05  9.966711e-06   0.002653  0.002653  0.002653    1.000000        0.000007  0.999767      0.001867         1.153619
2    0.035446     0.030088 -0.035444  -0.030086  2.990790e-06  2.331968e-06   0.001790  0.001790  0.001790    0.999927        0.000466  0.999845      0.000660         0.778138
3    0.010609     0.005108 -0.010609  -0.005108  4.796955e-08  3.740265e-08   0.000453  0.000453  0.000453    0.999767        0.001867  0.999762      0.001805         0.197095
4    0.026756     0.025355 -0.026755  -0.025354  7.432948e-07  5.795592e-07   0.001419  0.001419  0.001419    0.999767        0.001867  0.999742      0.002008         0.617006
5    0.007205     0.010372 -0.007130  -0.010314  7.461150e-05  5.817582e-05   0.018230  0.018230  0.018230    0.999926        0.000472  0.992776      0.128824         7.926130
6    0.004504     0.008073 -0.004438  -0.008021  6.632787e-05  5.171693e-05   0.013346  0.013346  0.013346    0.999767        0.001878  0.991394      0.206424         5.802562
7    0.001464     0.002141 -0.001459  -0.002137  4.546006e-06  3.544595e-06   0.003744  0.003744  0.003744    0.999767        0.001878  0.997650      0.040653         1.627869
8    0.004637     0.007800 -0.004622  -0.007789  1.416331e-05  1.104337e-05   0.013100  0.013100  0.013100    0.999767        0.001878  0.997924      0.043197         5.695720
9    0.009978     0.008907 -0.009978  -0.008907  6.188701e-08  4.825432e-08   0.000515  0.000515  0.000515    0.999827        0.000667  0.999821      0.000689         0.223869
10   0.023087     0.018259 -0.023086  -0.018258  4.238528e-07  3.304850e-07   0.001133  0.001133  0.001133    0.999845        0.000660  0.999827      0.000667         0.492656
11   0.014284     0.011525 -0.014284  -0.011525  1.648327e-07  1.285227e-07   0.000707  0.000707  0.000707    0.999742        0.002008  0.999730      0.002019         0.307226
12  -0.002985    -0.004933  0.003005   0.004948  2.011701e-05  1.568556e-05   0.008417  0.008417  0.008417    0.988687        0.218802  0.992776      0.128824         3.659401
13  -0.002955    -0.004215  0.002973   0.004229  1.810118e-05  1.411379e-05   0.007515  0.007515  0.007515    0.988560        0.203297  0.992776      0.128824         3.267528
14  -0.001690    -0.002998  0.001701   0.003007  1.104115e-05  8.608964e-06   0.005043  0.005043  0.005043    0.984988        0.308244  0.988687      0.218802         2.192461
15   0.002647     0.005199 -0.002606  -0.005166  4.158568e-05  3.242504e-05   0.008438  0.008438  0.008438    0.997924        0.043197  0.989761      0.264467         3.668783
16  -0.001026    -0.001171  0.001028   0.001173  2.153897e-06  1.679429e-06   0.002270  0.002270  0.002270    0.989688        0.225310  0.991394      0.206424         0.987073
--------------------------------------------------

TRAFO:
    p_hv_mw  q_hv_mvar   p_lv_mw  q_lv_mvar    pl_mw   ql_mvar   i_hv_ka   i_lv_ka  vm_hv_pu  va_hv_degree  vm_lv_pu  va_lv_degree  loading_percent
0  0.007215   0.011372 -0.007205  -0.010372  0.00001  0.001000  0.000518  0.018230  0.999927      0.000466  0.999926      0.000472         0.134688
1  0.010615   0.019013 -0.010605  -0.018013  0.00001  0.000999  0.000838  0.030178  0.999767      0.001867  0.999767      0.001878         0.217801
2  0.042675   0.045463 -0.042665  -0.041463  0.00001  0.004000  0.000514  0.002290  1.000000      0.000000  1.000000      0.000006         0.155886
3  0.048002   0.053486 -0.047992  -0.049486  0.00001  0.004000  0.000593  0.002653  1.000000      0.000000  1.000000      0.000007         0.179669
--------------------------------------------------
